
     RDKit          3D

  9  8  0  0  0  0  0  0  0  0999 V2000
    0.0055    0.5915   -0.0008 C   0  0  0  0  0  0  0  0  0  0  0  0
   -1.2536   -0.2554   -0.0298 C   0  0  0  0  0  0  0  0  0  0  0  0
    1.0878   -0.3076    0.0482 O   0  0  0  0  0  0  0  0  0  0  0  0
    0.0628    1.2838   -0.8428 H   0  0  0  0  0  0  0  0  0  0  0  0
    0.0061    1.2303    0.8853 H   0  0  0  0  0  0  0  0  0  0  0  0
   -2.2182    0.1898   -0.0582 H   0  0  0  0  0  0  0  0  0  0  0  0
   -0.9110   -1.0539   -0.7816 H   0  0  0  0  0  0  0  0  0  0  0  0
   -1.1920   -0.7425    0.9220 H   0  0  0  0  0  0  0  0  0  0  0  0
    1.8488   -0.0286   -0.5257 H   0  0  0  0  0  0  0  0  0  0  0  0
  2  1  1  0
  3  1  1  0
  4  1  1  0
  5  1  1  0
  6  2  1  0
  7  2  1  0
  8  2  1  0
  9  3  1  0
M  END
